SIMULATION
  SIMULATION_TYPE SUBSURFACE
  PROCESS_MODELS
    SUBSURFACE_FLOW flow
      MODE RICHARDS
    /
    SENSITIVITY_ANALYSIS sensitivity
      SENSITIVITY_FLOW
    /
  /
END

SUBSURFACE
