
SIMULATION
  SIMULATION_TYPE SUBSURFACE
  PROCESS_MODELS
    SUBSURFACE_FLOW flow
      MODE RICHARDS
    /
  /
END

SUBSURFACE


#=========================== discretization ===================================
GRID
  TYPE STRUCTURED 
  BOUNDS
    0. 0. 0.
    100. 100. 1.
  /
  NXYZ 3 4 1
END
REGION BC1
  CARTESIAN_BOUNDARY SOUTH !ymin
END
REGION BC2
  CARTESIAN_BOUNDARY NORTH !ymax
END


#=========================== EOS ===================================
EOS WATER
  #simplified value for hydraulic conductivity computation
  DENSITY CONSTANT 997.16d0 kg/m^3
  VISCOSITY CONSTANT 8.904156d-4 Pa-s
END


#=========================== material properties ==============================

MATERIAL_PROPERTY mater
  ID 1
  POROSITY 0.3
  TORTUOSITY 0.1
  SATURATION_FUNCTION default
  PERMEABILITY
    PERM_ISO 1e-12
  /
END


#=========================== characteristic curves ============================
CHARACTERISTIC_CURVES default
  DEFAULT
END


#=========================== output options ===================================
OUTPUT
  FORMAT HDF5
  VARIABLES
    LIQUID_HEAD
    FACE_AREA
    FACE_NON_ORTHOGONALITY_ANGLE
  /
  SNAPSHOT_FILE 
    PERIODIC TIMESTEP 1
    PRINT_CONNECTION_IDS
  /
  NO_PRINT_INITIAL
END


#=========================== times ============================================
TIME
  FINAL_TIME 50 y
  INITIAL_TIMESTEP_SIZE 50 y
  MAXIMUM_TIMESTEP_SIZE 1e2 y
END



#=========================== regions ==========================================
REGION all
  COORDINATES
    -1e6 -1e6 -1e6
    1e6 1e6  1e6
  /
END



#=========================== flow conditions ==================================
FLOW_CONDITION initial
  TYPE
    PRESSURE hydrostatic
  /
  DATUM 0 0 100
  PRESSURE 101325.
  GRADIENT 
    PRESSURE 0. -0.01 0.
  /
END



#=========================== condition couplers ===============================
# initial condition
INITIAL_CONDITION
  FLOW_CONDITION initial
  REGION all
END

BOUNDARY_CONDITION bc1
  FLOW_CONDITION initial
  REGION BC1
END

BOUNDARY_CONDITION bc2
  FLOW_CONDITION initial
  REGION BC2
END



#=========================== stratigraphy couplers ============================
STRATA
  REGION all
  MATERIAL mater
END

END_SUBSURFACE
